26
OCTANE10
C       1.360406    0.895583    4.164419
C       1.005088   -0.090498    3.044493
C       0.556713    0.611753    1.771301
C       0.229447   -0.352853    0.630575
H       1.704049    0.435463    4.889142
H       2.194035    1.476389    3.826142
H       0.408068    1.466132    4.486275
H       0.269435   -0.752987    3.344453
H       1.860062   -0.697920    2.770806
H       1.310052    1.237999    1.484478
H      -0.237763    1.227786    2.015430
H      -0.492007   -0.924818    0.927251
H       1.131547   -0.951749    0.368930
C      -0.229447    0.352853   -0.630575
C      -0.556713   -0.611753   -1.771301
H       0.492007    0.924818   -0.927251
H      -1.131547    0.951749   -0.368930
C      -1.005088    0.090498   -3.044493
H      -1.310052   -1.237999   -1.484478
H       0.237763   -1.227786   -2.015430
C      -1.360406   -0.895583   -4.164419
H      -0.269435    0.752987   -3.344453
H      -1.860062    0.697920   -2.770806
H      -1.704049   -0.435463   -4.889142
H      -2.194035   -1.476389   -3.826142
H      -0.408068   -1.466132   -4.486275
